*HEADING
Analiza Automatyczna
*NODE
1, 0, 2.5, -40
2, 0, 2.5, 40
3, 0, 52.5, 40
4, 0, 52.5, 33
5, 0, 16.5, 33
6, 0, 6.5, 23
7, 0, 6.5, -23
8, 0, 16.5, -33
9, 0, 52.5, -33
10, 0, 52.5, -40
11, 0, -2.5, -40
12, 0, -2.5, 40
13, 0, -52.5, 40
14, 0, -52.5, 33
15, 0, -16.5, 33
16, 0, -6.5, 23
17, 0, -6.5, -23
18, 0, -16.5, -33
19, 0, -52.5, -33
20, 0, -52.5, -40
** ... 9155 like lines cut
******* E L E M E N T S *************
*ELEMENT, type=C3D4, ELSET=Volume1
17121, 3975, 3676, 3977, 1381
17122, 1381, 1682, 3977, 1680
17123, 1381, 3977, 3975, 1680
17124, 3676, 3977, 1381, 1684
17125, 3685, 3684, 3698, 1389
17126, 3617, 3684, 3685, 1389
17127, 1282, 3579, 3577, 1283
17128, 3685, 1322, 1389, 1390
17129, 3641, 3617, 1346, 1389
17130, 1346, 3617, 1318, 1322
17131, 3617, 3641, 3684, 1389
17132, 1322, 1346, 3617, 1389
17133, 1390, 3685, 3698, 1389
17134, 3589, 1293, 1317, 1294
17135, 1282, 3577, 3575, 1283
17136, 3588, 3612, 3589, 1317
17137, 3613, 3589, 3902, 1607
17138, 1627, 3577, 3580, 1282
17139, 3580, 3922, 3577, 1627
17140, 3590, 3613, 3617, 1295
** ... 12265 like lines cut
*ELEMENT, type=C3D4, ELSET=Volume2
29406, 3056, 3377, 8662, 8686
29407, 3016, 2870, 8759, 8810
29408, 2977, 3165, 3164, 3163
29409, 1944, 1945, 1946, 2350
29410, 1861, 1852, 1875, 8786
29411, 2383, 1424, 8522, 8579
29412, 2858, 8759, 2870, 8810
29413, 2036, 8826, 2037, 8828
29414, 3056, 8662, 8595, 8686
29415, 3255, 3019, 3384, 3400
29416, 3151, 2855, 8696, 8718
29417, 1981, 1983, 1979, 8780
29418, 2406, 1430, 8531, 8541
29419, 3377, 3252, 8662, 8686
29420, 2869, 2858, 2870, 8810
29421, 2855, 3151, 3015, 8718
29422, 3151, 8683, 3152, 8697
29423, 3151, 3150, 3152, 8683
29424, 3151, 8696, 3397, 8718
29425, 8595, 8662, 3252, 8686
** ... 10131 like lines cut
*ELEMENT, type=C3D4, ELSET=Volume3
39557, 5488, 5627, 5460, 9058
39558, 5488, 9046, 5627, 9058
39559, 5656, 9046, 5488, 9174
39560, 4156, 4170, 4147, 9132
39561, 5458, 5656, 5488, 9174
39562, 9046, 9058, 5488, 9174
39563, 8998, 9046, 5656, 9174
39564, 5458, 5488, 9058, 9174
39565, 4586, 4058, 4637, 4290
39566, 665, 4184, 4183, 9163
39567, 4637, 4441, 4058, 4586
39568, 3719, 4678, 8866, 8923
39569, 4174, 9142, 4176, 9143
39570, 5648, 5649, 5353, 5410
39571, 5466, 5464, 5678, 9056
39572, 5520, 5567, 5603, 9141
39573, 4332, 4127, 4331, 9119
39574, 5428, 5708, 5368, 5163
39575, 4323, 4658, 4420, 4441
39576, 4701, 8875, 3725, 8885
** ... 10128 like lines cut
*ELSET,ELSET=SOLID_BODY
17121, 17122, 17123, 17124, 17125, 17126, 17127, 17128, 17129, 17130, 
17131, 17132, 17133, 17134, 17135, 17136, 17137, 17138, 17139, 17140, 
17141, 17142, 17143, 17144, 17145, 17146, 17147, 17148, 17149, 17150, 
17151, 17152, 17153, 17154, 17155, 17156, 17157, 17158, 17159, 17160, 
17161, 17162, 17163, 17164, 17165, 17166, 17167, 17168, 17169, 17170, 
17171, 17172, 17173, 17174, 17175, 17176, 17177, 17178, 17179, 17180, 
17181, 17182, 17183, 17184, 17185, 17186, 17187, 17188, 17189, 17190, 
17191, 17192, 17193, 17194, 17195, 17196, 17197, 17198, 17199, 17200, 
17201, 17202, 17203, 17204, 17205, 17206, 17207, 17208, 17209, 17210, 
17211, 17212, 17213, 17214, 17215, 17216, 17217, 17218, 17219, 17220, 
17221, 17222, 17223, 17224, 17225, 17226, 17227, 17228, 17229, 17230, 
17231, 17232, 17233, 17234, 17235, 17236, 17237, 17238, 17239, 17240, 
17241, 17242, 17243, 17244, 17245, 17246, 17247, 17248, 17249, 17250, 
17251, 17252, 17253, 17254, 17255, 17256, 17257, 17258, 17259, 17260, 
17261, 17262, 17263, 17264, 17265, 17266, 17267, 17268, 17269, 17270, 
17271, 17272, 17273, 17274, 17275, 17276, 17277, 17278, 17279, 17280, 
17281, 17282, 17283, 17284, 17285, 17286, 17287, 17288, 17289, 17290, 
17291, 17292, 17293, 17294, 17295, 17296, 17297, 17298, 17299, 17300, 
17301, 17302, 17303, 17304, 17305, 17306, 17307, 17308, 17309, 17310, 
17311, 17312, 17313, 17314, 17315, 17316, 17317, 17318, 17319, 17320, 
** ... 3239 like lines cut

*NODE
9999999, 100.0, -40.7220205710723, 0.0
*NSET, NSET=N_RP
9999999
*NSET, NSET=N_GRP_FIX
1, 2, 3, 4, 5, 6, 7, 8, 9, 10
11, 12, 13, 14, 15, 16, 17, 18, 19, 20
21, 22, 23, 24, 25, 26, 27, 28, 29, 30
31, 32, 33, 34, 35, 36, 37, 38, 39, 40
41, 42, 43, 44, 45, 46, 47, 48, 49, 50
51, 52, 53, 54, 55, 56, 57, 58, 59, 60
61, 62, 63, 64, 65, 66, 67, 68, 69, 70
71, 72, 73, 74, 75, 76, 77, 78, 79, 80
81, 82, 83, 84, 85, 86, 87, 88, 89, 90
91, 92, 93, 94, 95, 96, 97, 98, 99, 100
101, 102, 103, 104, 105, 106, 107, 108, 109, 110
111, 112, 113, 114, 115, 116, 117, 118, 119, 120
121, 122, 123, 124, 125, 126, 127, 128, 129, 130
131, 132, 133, 134, 135, 136, 137, 138, 139, 140
141, 142, 143, 144, 145, 146, 147, 148, 149, 150
151, 152, 153, 154, 155, 156, 157, 158, 159, 160
161, 162, 163, 164, 165, 166, 167, 168, 169, 170
171, 172, 173, 174, 175, 176, 177, 178, 179, 180
181, 182, 183, 184, 185, 186, 187, 188, 189, 190
191, 192, 193, 194, 195, 196, 197, 198, 199, 200
** ... 812 like lines cut
*NSET, NSET=N_GRP_LOAD
21, 22, 23, 24, 25, 26, 27, 28, 29, 30
31, 32, 33, 34, 35, 36, 37, 38, 39, 40
42, 44, 46, 48, 253, 254, 255, 256, 257, 258
259, 260, 261, 262, 263, 264, 265, 266, 267, 268
269, 270, 271, 296, 297, 298, 299, 300, 301, 302
303, 304, 305, 306, 307, 332, 357, 358, 359, 360
361, 362, 363, 364, 389, 390, 391, 416, 417, 418
419, 420, 421, 422, 423, 424, 425, 426, 451, 452
453, 478, 479, 480, 481, 482, 483, 484, 485, 510
511, 512, 513, 514, 515, 516, 517, 518, 519, 520
521, 522, 571, 572, 573, 574, 575, 576, 577, 578
579, 580, 581, 582, 583, 584, 585, 586, 587, 588
589, 614, 615, 616, 617, 618, 619, 620, 621, 622
623, 624, 625, 650, 675, 676, 677, 678, 679, 680
681, 682, 707, 708, 709, 734, 735, 736, 737, 738
739, 740, 741, 742, 743, 744, 769, 770, 771, 796
797, 798, 799, 800, 801, 802, 803, 828, 829, 830
831, 832, 833, 834, 835, 836, 837, 838, 839, 840
890, 913, 914, 915, 916, 917, 918, 919, 920, 921
922, 923, 924, 925, 926, 927, 928, 929, 930, 931
** ... 23 like lines cut
*NSET, NSET=N_SOLID_BODY
1, 2, 3, 4, 5, 6, 7, 8, 9, 10
11, 12, 13, 14, 15, 16, 17, 18, 19, 20
21, 22, 23, 24, 25, 26, 27, 28, 29, 30
31, 32, 33, 34, 35, 36, 37, 38, 39, 40
41, 42, 43, 44, 45, 46, 47, 48, 49, 50
51, 52, 53, 54, 55, 56, 57, 58, 59, 60
61, 62, 63, 64, 65, 66, 67, 68, 69, 70
71, 72, 73, 74, 75, 76, 77, 78, 79, 80
81, 82, 83, 84, 85, 86, 87, 88, 89, 90
91, 92, 93, 94, 95, 96, 97, 98, 99, 100
101, 102, 103, 104, 105, 106, 107, 108, 109, 110
111, 112, 113, 114, 115, 116, 117, 118, 119, 120
121, 122, 123, 124, 125, 126, 127, 128, 129, 130
131, 132, 133, 134, 135, 136, 137, 138, 139, 140
141, 142, 143, 144, 145, 146, 147, 148, 149, 150
151, 152, 153, 154, 155, 156, 157, 158, 159, 160
161, 162, 163, 164, 165, 166, 167, 168, 169, 170
171, 172, 173, 174, 175, 176, 177, 178, 179, 180
181, 182, 183, 184, 185, 186, 187, 188, 189, 190
191, 192, 193, 194, 195, 196, 197, 198, 199, 200
** ... 898 like lines cut
*MATERIAL, NAME=STEEL
*ELASTIC
210000.0, 0.3
*SOLID SECTION, ELSET=Volume1
, MATERIAL=STEEL
*RIGID BODY, NSET=N_GRP_LOAD, REF NODE=9999999
*BOUNDARY
N_GRP_FIX, 1, 6, 0.0
*STEP
*STATIC
*CLOAD
9999999, 1, -24000.0
9999999, 2, 4800.0
9999999, 3, 4800.0
9999999, 4, 2076450.9679255197
9999999, 6, 10800000.0
*NODE PRINT, NSET=N_RP, TOTALS=ONLY
U, RF
*EL PRINT, ELSET=Volume1

S
*NODE PRINT, FREQUENCY=1
U
*END STEP
