*HEADING
Analiza Automatyczna
*NODE
1, 0, 4, -32.5
2, 0, 4, 32.5
3, 0, 46, 32.5
4, 0, 46, 26.5
5, 0, 17, 26.5
6, 0, 9.5, 19
7, 0, 9.5, -19
8, 0, 17, -26.5
9, 0, 46, -26.5
10, 0, 46, -32.5
11, 0, -4, -32.5
12, 0, -4, 32.5
13, 0, -46, 32.5
14, 0, -46, 26.5
15, 0, -17, 26.5
16, 0, -9.5, 19
17, 0, -9.5, -19
18, 0, -17, -26.5
19, 0, -46, -26.5
20, 0, -46, -32.5
** ... 4252 like lines cut
******* E L E M E N T S *************
*ELEMENT, type=C3D4, ELSET=Volume1
8543, 844, 1039, 1858, 2054
8544, 3477, 3809, 3508, 4221
8545, 4123, 3111, 3163, 4222
8546, 3760, 3804, 3772, 3472
8547, 3114, 3158, 3126, 4118
8548, 1910, 1909, 895, 1908
8549, 1936, 2002, 987, 1935
8550, 923, 1938, 1939, 1936
8551, 987, 1053, 920, 2068
8552, 987, 920, 921, 1935
8553, 1936, 987, 921, 1935
8554, 923, 924, 921, 1939
8555, 1039, 1012, 1858, 2054
8556, 894, 893, 895, 1909
8557, 1939, 921, 923, 1936
8558, 1909, 893, 895, 1908
8559, 1909, 893, 888, 894
8560, 1934, 921, 920, 1935
8561, 1934, 1936, 921, 1935
8562, 1909, 1903, 888, 1908
** ... 6255 like lines cut
*ELEMENT, type=C3D4, ELSET=Volume2
14818, 1648, 1740, 1013, 4226
14819, 1514, 4228, 1806, 4242
14820, 1648, 1741, 1740, 4226
14821, 1019, 4225, 1352, 4231
14822, 1740, 4223, 1013, 4226
14823, 1060, 1155, 1154, 4225
14824, 1741, 4223, 1740, 4226
14825, 1154, 4225, 1155, 4233
14826, 1008, 1776, 1658, 4229
14827, 1519, 1801, 4223, 4239
14828, 913, 1516, 4239, 4242
14829, 1355, 4225, 979, 4233
14830, 915, 1519, 4223, 4239
14831, 980, 4225, 1154, 4233
14832, 915, 4223, 816, 4239
14833, 979, 4225, 980, 4233
14834, 816, 1801, 1752, 4239
14835, 816, 4223, 1801, 4239
14836, 1805, 1658, 1776, 4229
14837, 1155, 4225, 1355, 4233
** ... 3849 like lines cut
*ELEMENT, type=C3D4, ELSET=Volume3
18687, 2737, 2744, 2661, 4257
18688, 1960, 4254, 1836, 4257
18689, 2661, 2744, 1836, 4257
18690, 2737, 2661, 4254, 4257
18691, 2661, 1836, 4254, 4257
18692, 2673, 4252, 2023, 4257
18693, 2792, 2023, 2673, 4252
18694, 2070, 2023, 4252, 4257
18695, 2179, 4258, 2225, 4267
18696, 1978, 4256, 1976, 4262
18697, 2534, 1921, 4246, 4251
18698, 2225, 4258, 2361, 4267
18699, 2179, 2225, 2073, 4267
18700, 2519, 2070, 4252, 4257
18701, 2678, 2675, 2740, 4251
18702, 2678, 2740, 4246, 4251
18703, 2014, 2023, 2070, 4257
18704, 1978, 1977, 4256, 4262
18705, 1921, 2024, 4246, 4251
18706, 2014, 2673, 2023, 4257
** ... 3851 like lines cut
*ELSET,ELSET=SOLID_BODY
8543, 8544, 8545, 8546, 8547, 8548, 8549, 8550, 8551, 8552, 
8553, 8554, 8555, 8556, 8557, 8558, 8559, 8560, 8561, 8562, 
8563, 8564, 8565, 8566, 8567, 8568, 8569, 8570, 8571, 8572, 
8573, 8574, 8575, 8576, 8577, 8578, 8579, 8580, 8581, 8582, 
8583, 8584, 8585, 8586, 8587, 8588, 8589, 8590, 8591, 8592, 
8593, 8594, 8595, 8596, 8597, 8598, 8599, 8600, 8601, 8602, 
8603, 8604, 8605, 8606, 8607, 8608, 8609, 8610, 8611, 8612, 
8613, 8614, 8615, 8616, 8617, 8618, 8619, 8620, 8621, 8622, 
8623, 8624, 8625, 8626, 8627, 8628, 8629, 8630, 8631, 8632, 
8633, 8634, 8635, 8636, 8637, 8638, 8639, 8640, 8641, 8642, 
8643, 8644, 8645, 8646, 8647, 8648, 8649, 8650, 8651, 8652, 
8653, 8654, 8655, 8656, 8657, 8658, 8659, 8660, 8661, 8662, 
8663, 8664, 8665, 8666, 8667, 8668, 8669, 8670, 8671, 8672, 
8673, 8674, 8675, 8676, 8677, 8678, 8679, 8680, 8681, 8682, 
8683, 8684, 8685, 8686, 8687, 8688, 8689, 8690, 8691, 8692, 
8693, 8694, 8695, 8696, 8697, 8698, 8699, 8700, 8701, 8702, 
8703, 8704, 8705, 8706, 8707, 8708, 8709, 8710, 8711, 8712, 
8713, 8714, 8715, 8716, 8717, 8718, 8719, 8720, 8721, 8722, 
8723, 8724, 8725, 8726, 8727, 8728, 8729, 8730, 8731, 8732, 
8733, 8734, 8735, 8736, 8737, 8738, 8739, 8740, 8741, 8742, 
** ... 1382 like lines cut

*NODE
9999999, 100.0, -20.060265699129893, 0.0
*NSET, NSET=N_RP
9999999
*NSET, NSET=N_GRP_FIX
1, 2, 3, 4, 5, 6, 7, 8, 9, 10
11, 12, 13, 14, 15, 16, 17, 18, 19, 20
21, 22, 23, 24, 25, 26, 27, 28, 29, 30
31, 32, 33, 34, 35, 36, 37, 38, 39, 40
41, 42, 43, 44, 45, 46, 47, 48, 49, 50
51, 52, 53, 54, 55, 56, 57, 58, 59, 60
61, 62, 63, 64, 65, 66, 67, 68, 69, 70
71, 72, 73, 74, 75, 76, 77, 78, 79, 80
81, 82, 83, 84, 85, 86, 87, 88, 89, 90
91, 92, 93, 94, 95, 96, 97, 98, 99, 100
101, 102, 103, 104, 105, 106, 107, 108, 109, 110
111, 112, 113, 114, 115, 116, 117, 118, 119, 120
121, 122, 123, 124, 125, 126, 127, 128, 129, 130
131, 132, 133, 134, 135, 136, 137, 138, 139, 140
141, 142, 143, 144, 145, 146, 147, 148, 149, 150
151, 152, 153, 154, 155, 156, 157, 158, 159, 160
161, 162, 163, 164, 165, 166, 167, 168, 169, 170
171, 172, 173, 174, 175, 176, 177, 178, 179, 180
181, 182, 183, 184, 185, 186, 187, 188, 189, 190
191, 192, 193, 194, 195, 196, 197, 198, 199, 200
** ... 394 like lines cut
*NSET, NSET=N_GRP_LOAD
21, 22, 23, 24, 25, 26, 27, 28, 29, 30
31, 32, 33, 34, 35, 36, 37, 38, 39, 40
42, 44, 46, 48, 175, 176, 177, 178, 179, 180
181, 182, 183, 184, 185, 204, 205, 206, 207, 208
209, 210, 229, 248, 249, 250, 251, 252, 271, 290
291, 292, 293, 294, 295, 314, 333, 334, 335, 336
337, 356, 357, 358, 359, 360, 361, 362, 363, 400
401, 402, 403, 404, 405, 406, 407, 408, 409, 410
429, 430, 431, 432, 433, 434, 435, 454, 473, 474
475, 476, 477, 496, 515, 516, 517, 518, 519, 520
539, 558, 559, 560, 561, 562, 581, 582, 583, 584
585, 586, 587, 588, 626, 641, 642, 643, 644, 645
646, 647, 648, 649, 650, 651, 652, 653, 654, 687
688, 689, 690, 691, 692, 693, 694, 695, 696, 697
698, 699, 700, 720, 735, 736, 737, 738, 739, 740
741, 742, 743, 744, 745, 746, 747, 748, 763, 764
765, 766, 767, 768, 769, 770, 771, 772, 773, 774
775, 776, 1808, 1809, 1810, 1811, 1812, 1813, 1814, 1815
1816, 1817, 1818, 1819, 1820, 1821, 1822, 1823, 2822, 2823
2824, 2825, 2826, 2827, 2828, 2829, 2830, 2831, 2832, 2833
** ... 5 like lines cut
*NSET, NSET=N_SOLID_BODY
1, 2, 3, 4, 5, 6, 7, 8, 9, 10
11, 12, 13, 14, 15, 16, 17, 18, 19, 20
21, 22, 23, 24, 25, 26, 27, 28, 29, 30
31, 32, 33, 34, 35, 36, 37, 38, 39, 40
41, 42, 43, 44, 45, 46, 47, 48, 49, 50
51, 52, 53, 54, 55, 56, 57, 58, 59, 60
61, 62, 63, 64, 65, 66, 67, 68, 69, 70
71, 72, 73, 74, 75, 76, 77, 78, 79, 80
81, 82, 83, 84, 85, 86, 87, 88, 89, 90
91, 92, 93, 94, 95, 96, 97, 98, 99, 100
101, 102, 103, 104, 105, 106, 107, 108, 109, 110
111, 112, 113, 114, 115, 116, 117, 118, 119, 120
121, 122, 123, 124, 125, 126, 127, 128, 129, 130
131, 132, 133, 134, 135, 136, 137, 138, 139, 140
141, 142, 143, 144, 145, 146, 147, 148, 149, 150
151, 152, 153, 154, 155, 156, 157, 158, 159, 160
161, 162, 163, 164, 165, 166, 167, 168, 169, 170
171, 172, 173, 174, 175, 176, 177, 178, 179, 180
181, 182, 183, 184, 185, 186, 187, 188, 189, 190
191, 192, 193, 194, 195, 196, 197, 198, 199, 200
** ... 408 like lines cut
*MATERIAL, NAME=STEEL
*ELASTIC
210000.0, 0.3
*SOLID SECTION, ELSET=Volume1
, MATERIAL=STEEL
*RIGID BODY, NSET=N_GRP_LOAD, REF NODE=9999999
*BOUNDARY
N_GRP_FIX, 1, 6, 0.0
*STEP
*STATIC
*CLOAD
9999999, 1, -24000.0
9999999, 2, 4800.0
9999999, 3, 4800.0
9999999, 4, 2150493.8294165297
9999999, 6, 10800000.0
*NODE PRINT, NSET=N_RP, TOTALS=ONLY
U, RF
*EL PRINT, ELSET=Volume1

S
*NODE PRINT, FREQUENCY=1
U
*END STEP
